&NAM_IO_OFFLINE
  CSURF_FILETYPE="LFI",
  CFORCING_FILETYPE="ASCII",
  CTIMESERIES_FILETYPE="LFI",
  XTSTEP_OUTPUT=3600.,
  CPREPFILE="PREP_SODA"
  CPGDFILE="PGD_SODA"
/
&NAM_PREP_SURF_ATM
  CFILE="ECMWF_GRIB_FILE",
  CFILETYPE="GRIB",
/
