&NAM_MY_PARAM  YEXPERIMENT_NAME   = 'ALQUEVA0206 '  ,
               NUMBER_GRID_CELLS  = 1               ,
               NUMBER_OF_TIME_STEPS_INPUT  = 38950  ,
               NUMBER_OF_TIME_STEPS_FINAL  = 38950  ,
               ZATM_FORC_STEP     = 3600.           ,
               YFORCING_FILETYPE  = 'ASCII '
/
