&NAM_FRAC              LECOCLIMAP = T
/
&NAM_PGD_GRID          CGRID = 'IGN      ' 
/
&NAM_PGD_SCHEMES       CNATURE = 'ISBA  '    , 
                       CSEA    = 'SEAFLX'      , 
                       CTOWN   = 'TEB '    , 
                       CWATER  = 'WATFLX'    ,
                       LGARDEN = .FALSE.
/
&NAM_COVER             YCOVER  = 'ECOCLIMAP_II_EUROP',
                       YCOVERFILETYPE ='DIRECT'           ,
                       XRM_COVER = 0.001 
/
&NAM_WRITE_DIAG_SURFn  LSELECT=T,
                       CSELECT(1)='EVAPC_ISBA',
                       CSELECT(2)='DRAINC_ISBA',
                       CSELECT(3)='RUNOFFC_ISBA',
                       CSELECT(4)='RUNOFFC_TWN',
                       CSELECT(5)='WG2',
		       CSELECT(6)='WG3',
                       CSELECT(7)='WGI2'
/
&NAM_ECOCLIMAP2        LCLIM_LAI=T 
/
&NAM_ZS                YZS       = 'Z.SIM'       ,
                       YZSFILETYPE = 'ASCLLV'      ,    
                       COROGTYPE = 'MAX' 
/
&NAM_ISBA              YCLAY         = 'CLAY.SIM', 
                       YCLAYFILETYPE = 'ASCLLV'      ,
                       YSAND         = 'SAND.SIM', 
                       YSANDFILETYPE = 'ASCLLV'      ,
                       YWDRAIN         = 'WDRAIN.SIM'    ,
                       YWDRAINFILETYPE = 'ASCLLV'      ,
                       YRUNOFFB         = 'RUNOFFB.SIM'    ,
                       YRUNOFFBFILETYPE = 'ASCLLV'      ,
                       CISBA         = '3-L'         ,
                       CPHOTO        = 'NON'         ,
                       NPATCH        = 1             ,
                       NGROUND_LAYER = 3             ,
/
&NAM_PREPFILE          CPREPFILE = 'PREP'
/
&NAM_PREP_SURF_ATM NYEAR  = 1995,
                   NMONTH = 8,
                   NDAY   = 1,
                   XTIME  = 0. 
/
&NAM_PREP_SEAFLUX  XSST_UNIF = 285.,
                   NYEAR  = 1995,
                   NMONTH = 8,
                   NDAY   = 1,
                   XTIME  = 0. 
/
&NAM_PREP_WATFLUX  XTS_WATER_UNIF = 285.,
                   NYEAR  = 1995,
                   NMONTH = 8,
                   NDAY   = 1,
                   XTIME  = 0. 
/
&NAM_PREP_TEB      XTI_ROAD= 293.16,
                   XTI_BLD = 293.16
                   XTS_ROAD= 293.16
                   XTS_ROOF= 293.16,
                   XTS_WALL= 293.16,
                   XWS_ROAD= 0.,
                   XWS_ROOF= 0.,
                   NYEAR  = 1995,
                   NMONTH = 8,
                   NDAY   = 1,
                   XTIME  = 0.
/
&NAM_PREP_ISBA     XHUG_SURF = 0.33,
                   XHUG_ROOT = 0.33,
                   XHUG_DEEP = 0.33,
                   XTG_SURF  = 293.16,
                   XTG_ROOT  = 293.16,
                   XTG_DEEP  = 293.16,
                   NYEAR  = 1995,   
                   NMONTH = 8,
                   NDAY   = 1,
                   XTIME  = 0. 
/
&NAM_PREP_ISBA_SNOW    CSNOW = '3-L' 
/
&NAM_IO_OFFLINE        LRESTART = T                      ,
                       LPRINT  = T                       ,
                       CFORCING_FILETYPE =    'NETCDF'   ,
                       CSURF_FILETYPE =       'ASCII '   ,
                       CTIMESERIES_FILETYPE = 'BINARY '   ,
                       XTSTEP_OUTPUT = 10800.             ,
                       LWRITE_COORD = T
                       LSET_FORC_ZS = T
/
&NAM_DIAG_SURFn        LSURF_BUDGET = F      ,
                       LSURF_BUDGETC = T     ,
                       N2M          = 0      ,
                       LCOEF        = F      ,
                       LSURF_VARS   = F      ,
                       LRESET_BUDGETC = T
/
&NAM_DIAG_SURF_ATMn    LFRAC        = T
/
&NAM_DIAG_ISBAn        LPGD              = F , 
                       LSURF_EVAP_BUDGET = F , 
                       LSURF_MISC_BUDGET = T 
/
&NAM_DIAG_TEBn         LSURF_MISC_BUDGET = F
/
&NAM_SGH_ISBAn         CRUNOFF    = "DT92"
/
&NAM_SSOn              CROUGH     = "Z04D"
/
&NAM_ISBAn             CSCOND     = "PL98"     ,
                       CC1DRY     = 'DEF '     ,
                       CSOILFRZ   = 'DEF'      ,
                       CDIFSFCOND = 'DEF '     ,
                       CSNOWRES   = 'RIL'      ,
                       CCPSURF    = 'DRY' 
/
&NAM_CH_ISBAn          CCH_DRY_DEP = "WES89 " 
/
&NAM_SEAFLUXn          CSEA_ALB = "TA96" 
/
&NAM_CH_SEAFLUXn       CCH_DRY_DEP = "WES89 " 
/
&NAM_CH_WATFLUXn       CCH_DRY_DEP = "WES89 " 
/
&NAM_CH_TEBn           CCH_DRY_DEP = "WES89 " 
/
&NAM_IGN                   CLAMBERT  = 'L2E'   ,
                           NPOINTS   = 9892    ,
                           XX        =          
                                          620000.        ,
                                          588000.        ,
                                          596000.        ,
                                          604000.        ,
                                          612000.        ,
                                          620000.        ,
                                          628000.        ,
                                          636000.        ,
                                          644000.        ,
                                          652000.        ,
                                          660000.        ,
                                          564000.        ,
                                          572000.        ,
                                          580000.        ,
                                          588000.        ,
                                          596000.        ,
                                          604000.        ,
                                          612000.        ,
                                          620000.        ,
                                          628000.        ,
                                          636000.        ,
                                          644000.        ,
                                          652000.        ,
                                          660000.        ,
                                          556000.        ,
                                          564000.        ,
                                          572000.        ,
                                          580000.        ,
                                          588000.        ,
                                          596000.        ,
                                          604000.        ,
                                          612000.        ,
                                          620000.        ,
                                          628000.        ,
                                          636000.        ,
                                          644000.        ,
                                          548000.        ,
                                          556000.        ,
                                          564000.        ,
                                          572000.        ,
                                          580000.        ,
                                          588000.        ,
                                          596000.        ,
                                          604000.        ,
                                          612000.        ,
                                          620000.        ,
                                          628000.        ,
                                          636000.        ,
                                          644000.        ,
                                          548000.        ,
                                          556000.        ,
                                          564000.        ,
                                          572000.        ,
                                          580000.        ,
                                          588000.        ,
                                          596000.        ,
                                          604000.        ,
                                          612000.        ,
                                          620000.        ,
                                          628000.        ,
                                          636000.        ,
                                          644000.        ,
                                          652000.        ,
                                          660000.        ,
                                          548000.        ,
                                          556000.        ,
                                          564000.        ,
                                          572000.        ,
                                          580000.        ,
                                          588000.        ,
                                          596000.        ,
                                          604000.        ,
                                          612000.        ,
                                          620000.        ,
                                          628000.        ,
                                          636000.        ,
                                          644000.        ,
                                          652000.        ,
                                          660000.        ,
                                          668000.        ,
                                          548000.        ,
                                          556000.        ,
                                          564000.        ,
                                          572000.        ,
                                          580000.        ,
                                          588000.        ,
                                          596000.        ,
                                          604000.        ,
                                          612000.        ,
                                          620000.        ,
                                          628000.        ,
                                          636000.        ,
                                          644000.        ,
                                          652000.        ,
                                          660000.        ,
                                          668000.        ,
                                          548000.        ,
                                          556000.        ,
                                          564000.        ,
                                          572000.        ,
                                          580000.        ,
                                          588000.        ,
                                          596000.        ,
                                          604000.        ,
                                          612000.        ,
                                          620000.        ,
                                          628000.        ,
                                          636000.        ,
                                          644000.        ,
                                          652000.        ,
                                          660000.        ,
                                          668000.        ,
                                          676000.        ,
                                          684000.        ,
                                          692000.        ,
                                          700000.        ,
                                          708000.        ,
                                          716000.        ,
                                          724000.        ,
                                          732000.        ,
                                          548000.        ,
                                          556000.        ,
                                          564000.        ,
                                          572000.        ,
                                          580000.        ,
                                          588000.        ,
                                          596000.        ,
                                          604000.        ,
                                          612000.        ,
                                          620000.        ,
                                          628000.        ,
                                          636000.        ,
                                          644000.        ,
                                          652000.        ,
                                          660000.        ,
                                          668000.        ,
                                          676000.        ,
                                          684000.        ,
                                          692000.        ,
                                          700000.        ,
                                          708000.        ,
                                          716000.        ,
                                          724000.        ,
                                          732000.        ,
                                          740000.        ,
                                          548000.        ,
                                          556000.        ,
                                          564000.        ,
                                          572000.        ,
                                          580000.        ,
                                          588000.        ,
                                          596000.        ,
                                          604000.        ,
                                          612000.        ,
                                          620000.        ,
                                          628000.        ,
                                          636000.        ,
                                          644000.        ,
                                          652000.        ,
                                          660000.        ,
                                          668000.        ,
                                          676000.        ,
                                          684000.        ,
                                          692000.        ,
                                          700000.        ,
                                          708000.        ,
                                          716000.        ,
                                          724000.        ,
                                          732000.        ,
                                          740000.        ,
                                          548000.        ,
                                          556000.        ,
                                          564000.        ,
                                          572000.        ,
                                          580000.        ,
                                          588000.        ,
                                          596000.        ,
                                          604000.        ,
                                          612000.        ,
                                          620000.        ,
                                          628000.        ,
                                          636000.        ,
                                          644000.        ,
                                          652000.        ,
                                          660000.        ,
                                          668000.        ,
                                          676000.        ,
                                          684000.        ,
                                          692000.        ,
                                          700000.        ,
                                          708000.        ,
                                          716000.        ,
                                          724000.        ,
                                          732000.        ,
                                          540000.        ,
                                          548000.        ,
                                          556000.        ,
                                          564000.        ,
                                          572000.        ,
                                          580000.        ,
                                          588000.        ,
                                          596000.        ,
                                          604000.        ,
                                          612000.        ,
                                          620000.        ,
                                          628000.        ,
                                          636000.        ,
                                          644000.        ,
                                          652000.        ,
                                          660000.        ,
                                          668000.        ,
                                          676000.        ,
                                          684000.        ,
                                          692000.        ,
                                          700000.        ,
                                          708000.        ,
                                          716000.        ,
                                          724000.        ,
                                          732000.        ,
                                          740000.        ,
                                          540000.        ,
                                          548000.        ,
                                          556000.        ,
                                          564000.        ,
                                          572000.        ,
                                          580000.        ,
                                          588000.        ,
                                          596000.        ,
                                          604000.        ,
                                          612000.        ,
                                          620000.        ,
                                          628000.        ,
                                          636000.        ,
                                          644000.        ,
                                          652000.        ,
                                          660000.        ,
                                          668000.        ,
                                          676000.        ,
                                          684000.        ,
                                          692000.        ,
                                          700000.        ,
                                          708000.        ,
                                          716000.        ,
                                          724000.        ,
                                          732000.        ,
                                          740000.        ,
                                          748000.        ,
                                          756000.        ,
                                          772000.        ,
                                          780000.        ,
                                          788000.        ,
                                          540000.        ,
                                          548000.        ,
                                          556000.        ,
                                          564000.        ,
                                          572000.        ,
                                          580000.        ,
                                          588000.        ,
                                          596000.        ,
                                          604000.        ,
                                          612000.        ,
                                          620000.        ,
                                          628000.        ,
                                          636000.        ,
                                          644000.        ,
                                          652000.        ,
                                          660000.        ,
                                          668000.        ,
                                          676000.        ,
                                          684000.        ,
                                          692000.        ,
                                          700000.        ,
                                          708000.        ,
                                          716000.        ,
                                          724000.        ,
                                          732000.        ,
                                          740000.        ,
                                          748000.        ,
                                          756000.        ,
                                          764000.        ,
                                          772000.        ,
                                          780000.        ,
                                          788000.        ,
                                          524000.        ,
                                          532000.        ,
                                          540000.        ,
                                          548000.        ,
                                          556000.        ,
                                          564000.        ,
                                          572000.        ,
                                          580000.        ,
                                          588000.        ,
                                          596000.        ,
                                          604000.        ,
                                          612000.        ,
                                          620000.        ,
                                          628000.        ,
                                          636000.        ,
                                          644000.        ,
                                          652000.        ,
                                          660000.        ,
                                          668000.        ,
                                          676000.        ,
                                          684000.        ,
                                          692000.        ,
                                          700000.        ,
                                          708000.        ,
                                          716000.        ,
                                          724000.        ,
                                          732000.        ,
                                          740000.        ,
                                          748000.        ,
                                          756000.        ,
                                          764000.        ,
                                          772000.        ,
                                          780000.        ,
                                          788000.        ,
                                          516000.        ,
                                          524000.        ,
                                          532000.        ,
                                          540000.        ,
                                          548000.        ,
                                          556000.        ,
                                          564000.        ,
                                          572000.        ,
                                          580000.        ,
                                          588000.        ,
                                          596000.        ,
                                          604000.        ,
                                          612000.        ,
                                          620000.        ,
                                          628000.        ,
                                          636000.        ,
                                          644000.        ,
                                          652000.        ,
                                          660000.        ,
                                          668000.        ,
                                          676000.        ,
                                          684000.        ,
                                          692000.        ,
                                          700000.        ,
                                          708000.        ,
                                          716000.        ,
                                          724000.        ,
                                          732000.        ,
                                          740000.        ,
                                          748000.        ,
                                          756000.        ,
                                          764000.        ,
                                          772000.        ,
                                          780000.        ,
                                          788000.        ,
                                          796000.        ,
                                          812000.        ,
                                          820000.        ,
                                          828000.        ,
                                          484000.        ,
                                          492000.        ,
                                          500000.        ,
                                          508000.        ,
                                          516000.        ,
                                          524000.        ,
                                          532000.        ,
                                          540000.        ,
                                          548000.        ,
                                          556000.        ,
                                          564000.        ,
                                          572000.        ,
                                          580000.        ,
                                          588000.        ,
                                          596000.        ,
                                          604000.        ,
                                          612000.        ,
                                          620000.        ,
                                          628000.        ,
                                          636000.        ,
                                          644000.        ,
                                          652000.        ,
                                          660000.        ,
                                          668000.        ,
                                          676000.        ,
                                          684000.        ,
                                          692000.        ,
                                          700000.        ,
                                          708000.        ,
                                          716000.        ,
                                          724000.        ,
                                          732000.        ,
                                          740000.        ,
                                          748000.        ,
                                          756000.        ,
                                          764000.        ,
                                          772000.        ,
                                          780000.        ,
                                          788000.        ,
                                          796000.        ,
                                          804000.        ,
                                          812000.        ,
                                          820000.        ,
                                          828000.        ,
                                          836000.        ,
                                          292000.        ,
                                          468000.        ,
                                          476000.        ,
                                          484000.        ,
                                          492000.        ,
                                          500000.        ,
                                          508000.        ,
                                          516000.        ,
                                          524000.        ,
                                          532000.        ,
                                          540000.        ,
                                          548000.        ,
                                          556000.        ,
                                          564000.        ,
                                          572000.        ,
                                          580000.        ,
                                          588000.        ,
                                          596000.        ,
                                          604000.        ,
                                          612000.        ,
                                          620000.        ,
                                          628000.        ,
                                          636000.        ,
                                          644000.        ,
                                          652000.        ,
                                          660000.        ,
                                          668000.        ,