&NAM_MY_PARAM  YEXPERIMENT_NAME   = 'MA01        ',
               NUMBER_GRID_CELLS  = 1             ,
               NUMBER_OF_TIME_STEPS_INPUT  = 1208 ,
               NUMBER_OF_TIME_STEPS_FINAL  = 1208 ,
               ZATM_FORC_STEP     = 1800.         ,
               YFORCING_FILETYPE  = 'ASCII '
/
