&NAM_MY_PARAM  YEXPERIMENT_NAME   = 'ALP_FOR_0203'  ,
               NUMBER_GRID_CELLS  = 1               ,
               NUMBER_OF_TIME_STEPS_INPUT  = 11665  ,
               NUMBER_OF_TIME_STEPS_FINAL  = 11665  ,
               ZATM_FORC_STEP     = 1800.           ,
               YFORCING_FILETYPE  = 'ASCII '
/
